15
Properties=species:S:1:pos:R:3:force_0:R:3:force_1:R:3:nac:R:3 energy_0=-8241.315254261612 energy_1=-8240.30945883977 pbc="F F F"
C        1.08122231      -0.26673009       0.50142376      -0.48876674      -1.58436863       2.29078544      -0.12374905      -1.53462236       2.09832061       0.46846220      -0.11117081      -0.34521445
C        1.60293386       0.95121881      -0.10826248       1.12799139       4.29516766      -1.20374423       1.18128047       4.16049526      -1.22966641       0.04895511      -0.06712955       0.02798491
C        1.14958657       0.73096483      -1.56215864      -1.67479878       0.55182239       3.76507336      -1.74835940       0.57630942       3.72262808      -0.08883950       0.02316616      -0.06023595
C       -0.35583030      -0.49371916       0.01046776       2.20282780      -4.25207868      -4.36312628       1.44460709      -2.43230132      -4.26973158       0.89565222       0.90700217       1.42653561
C       -0.30855106       0.32458829      -1.39894658      -0.46271599      -3.64166917      -1.65826052      -0.23724098      -3.56528379      -1.86429858       0.20667457       0.12240856      -0.13965980
N       -2.11474572      -0.82660135       1.77115361       1.12845945      -1.01382940      -0.49136760      -1.29069356      -0.00411011       1.28274177       0.45891170       0.65493627       1.85375703
N       -1.40415420      -0.37236853       0.92141842      -2.33273991       3.90166251       1.04635972       0.26771737       0.53340012      -0.65284950      -1.83424413      -2.10607931      -3.18480013
H       -1.08864518       1.10156811      -1.42402090       0.44975743      -0.24942801      -0.54845088       0.51852981      -0.28264038      -0.51186797      -0.01394286      -0.03785936       0.02550999
H       -0.39759245      -0.57106452      -2.23873169      -0.89600711       2.87706906       1.99045227      -0.89374115       2.95003068       1.96606418       0.00914650       0.00156405      -0.03076517
H       -0.49929116      -1.59805472      -0.36390099       0.80733571       1.81175927       0.85912260       0.71273333       2.37368650       1.33285850      -0.32428295       0.60731299       0.44630250
H        1.61397832       1.19619291      -2.37209990       0.26502144       0.70407905      -1.42706700       0.30373426       0.61874856      -1.44315182       0.04412653      -0.04161633       0.00228348
H        1.05471324       1.88727838       0.38578095       1.32289873      -1.69650420      -1.38555988       1.26232426      -1.68375702      -1.38519442      -0.00548876       0.01916986      -0.01388961
H        1.09442233      -0.33411727       1.57267849       0.25380141       0.33558351       0.68532562       0.18696407       0.31484230       0.62250370      -0.03312457      -0.03393620      -0.01730230
H        1.73550218      -1.02390472       0.14926453       0.13994108      -1.38860846      -0.26541001       0.25028924      -1.43575020      -0.36462798       0.15783054       0.02391364       0.01761769
H        2.73659401       1.15282586      -0.10901044      -1.84300590      -0.65065691       0.70586740      -1.83439576      -0.58904766       0.69627141       0.01016338       0.03831787      -0.00812381
15
Properties=species:S:1:pos:R:3:force_0:R:3:force_1:R:3:nac:R:3 energy_0=-8243.10292233576 energy_1=-8240.234269153638 pbc="F F F"
C        1.11246639      -0.52689412       0.42496575      -0.49254178       0.27118804       0.85820402      -0.53851075       0.54935278       1.25583977       0.19831405      -0.25678610      -0.29751403
C        1.49635728       0.91795667       0.01325281      -1.08161128       1.16305250       1.97321960      -1.13211485       1.24718941       1.99233479      -0.00139558      -0.04547466      -0.00981869
C        1.12963662       0.94577498      -1.41380087      -2.45154615      -1.24712413       0.93380188      -2.37466551      -1.32644361       1.05604113       0.01050306       0.00702880       0.05053279
C       -0.30684710      -0.68660778      -0.12764438       0.21745197       1.47527833      -0.03864167      -0.22449244       1.15236076       0.61414665       1.14878753       0.16442301       1.14808482
C       -0.24896682       0.18362625      -1.40291725       1.07452299       0.30391572      -1.42438963       0.70044323       0.78610451      -1.35778055      -0.16765047       0.08293503       0.16549401
N       -2.00847692      -0.88178646       1.60331928       1.48408149       3.76228561      -1.80789242       0.11982404       0.63317875      -0.02329826       0.44777563      -0.09645636       0.62211230
N       -1.47257505       0.05886563       0.98917136      -1.24166294      -4.30987297       1.74547597       1.15144947      -1.33909165      -1.12057015      -1.59325007       0.05928137      -1.81351714
H       -1.03644570       0.94643394      -1.48381582      -0.10078475      -0.61837746       0.08152564      -0.04538539      -0.75136794       0.10840199      -0.03829212       0.00100255       0.00829721
H       -0.23093871      -0.45210545      -2.29058468      -0.65886246      -0.00990984      -0.04678215      -0.68314771      -0.13981371       0.07115597      -0.01828423      -0.02820936       0.03086822
H       -0.70953991      -1.70090383      -0.19671109       0.29916968       0.36699463      -0.27176547       0.33671401       0.61842347      -0.30956955      -0.06756407       0.09558312       0.08811700
H        1.27472997       1.73659180      -2.10856346       0.23218329       0.66444461      -0.36138286       0.18518401       0.62595855      -0.37782844      -0.00667367      -0.00797902      -0.00879830
H        0.88751590       1.73790854       0.70115540       1.05169475      -2.33582629      -1.97441102       1.06905608      -2.41772960      -1.99301435      -0.01246753       0.02278828       0.01088979
H        1.19984627      -0.56076808       1.50690334      -0.25660248      -0.68047631       0.16286156      -0.33547218      -0.70544596       0.04234247      -0.02189818      -0.02616807      -0.01291060
H        1.69323202      -1.36620761      -0.01924299       0.21690947       1.05760029       0.17544380       0.06807018       0.97914377       0.05746382       0.12804247       0.02095535       0.01616382
H        2.48682503       1.15936346       0.26935147       1.70759821       0.13682727      -0.00526724       1.70304781       0.08818049      -0.01566529      -0.00594681       0.00707606       0.00199880
15
Properties=species:S:1:pos:R:3:force_0:R:3:force_1:R:3:nac:R:3 energy_0=-8242.540739177626 energy_1=-8238.761326340129 pbc="F F F"
C        1.07851580      -0.52945941       0.42048005       2.32248447       1.73437488       3.34549334       2.10849173       2.45148749       4.21106983       0.15257003      -0.26372866      -0.37159370
C        1.48713443       0.95944777       0.12870556      -5.82049302      -3.70283069      -4.55386309      -5.82060260      -3.68007017      -4.67828611      -0.00632480      -0.07983631       0.03974505
C        0.99098078       1.10616337      -1.37986370       0.17226131      -2.11368827       2.09150626       0.37698369      -1.98299327       2.06382789      -0.04543357       0.03588281       0.02799703
C       -0.20882100      -0.76495220      -0.19222200      -0.30836829      -1.14860226      -0.97790950      -2.18220348      -1.00227374       0.10839309       1.39304857       1.08030138       0.59797350
C       -0.18505146       0.06233737      -1.50604919       0.44724598      -0.10476053       0.85384309      -0.00252703       0.54423275       0.99515066       0.00499292      -0.12948536       0.20440851
N       -1.84601192      -0.64368355       1.79757233      -0.00899626       0.49588889      -0.48231349      -1.08787764      -2.54635430       4.74779479       0.67668849       0.95849452       0.42526432
N       -1.66525833      -0.06634694       0.79841835      -0.79338260       0.09039065       1.34234339       2.95748497       1.93707144      -5.61934445      -1.97217960      -1.82091183      -1.00050815
H       -1.15713040       0.53357884      -1.47622612      -0.24824971       0.26791135      -1.16015162       0.00873395       0.13621159      -1.12250168      -0.09227287      -0.04094664      -0.03101511
H        0.02055016      -0.61011512      -2.33820298      -0.64245133       0.36240054      -0.36160736      -0.59496042       0.14240893      -0.11298648       0.00083323      -0.02923579       0.00970153
H       -0.55660492      -1.82934466      -0.04791937       0.33262860       1.27644986      -1.18751724       0.21548211       1.49072537      -0.98520441      -0.25267132       0.29493402       0.08858488
H        1.76985494       1.01290619      -2.14084188      -0.26587379       0.36413785       0.04267770      -0.28385867       0.35839958       0.02355667      -0.03702610       0.03313349      -0.01746837
H        0.85264508       1.47441082       0.73245905      -2.00565106       2.15544502       1.77071101      -2.11476458       2.09386482       1.77196842       0.01991017      -0.00860962      -0.00066582
H        1.13454655      -0.66169430       1.55221550      -0.26080911      -0.33307023      -1.45485360      -0.26943316      -0.34932883      -1.75095624      -0.01840025       0.00391063       0.00427133
H        1.76929985      -1.19767096      -0.03681633       0.96007055      -0.71913743      -0.22202146       0.57403408      -0.90932413      -0.58488308       0.17272546      -0.03413312       0.02163465
H        2.38949761       1.21263330       0.35767201       6.11958426       1.37509037       0.95366256       6.11501705       1.31594249       0.93240111       0.00353965       0.00023046       0.00167037